data_image0
_chemical_formula_structural       Mg70O72Pt
_chemical_formula_sum              "Mg70 O72 Pt1"
_cell_length_a       8.42862
_cell_length_b       12.6429
_cell_length_c       26.5968
_cell_angle_alpha    90
_cell_angle_beta     90
_cell_angle_gamma    90

_space_group_name_H-M_alt    "P 1"
_space_group_IT_number       1

loop_
  _space_group_symop_operation_xyz
  'x, y, z'

loop_
  _atom_site_type_symbol
  _atom_site_label
  _atom_site_symmetry_multiplicity
  _atom_site_fract_x
  _atom_site_fract_y
  _atom_site_fract_z
  _atom_site_occupancy
  Mg  Mg1       1.0  0.00000  0.00000  0.30194  1.0000
  Mg  Mg2       1.0  0.25000  0.16667  0.30194  1.0000
  Mg  Mg3       1.0  0.00000  0.16667  0.38116  1.0000
  Mg  Mg4       1.0  0.25000  0.00000  0.38116  1.0000
  Mg  Mg5       1.0  0.00075  0.00071  0.46078  1.0000
  Mg  Mg6       1.0  0.24935  0.16563  0.45970  1.0000
  Mg  Mg7       1.0  0.00771  0.16557  0.54173  1.0000
  Mg  Mg8       1.0  0.24932  0.00522  0.54210  1.0000
  Mg  Mg9       1.0  0.00830  0.00502  0.61902  1.0000
  Mg  Mg10      1.0  0.00961  0.16493  0.69601  1.0000
  Mg  Mg11      1.0  0.24911  0.00583  0.69562  1.0000
  Mg  Mg12      1.0  0.00000  0.33333  0.30194  1.0000
  Mg  Mg13      1.0  0.25000  0.50000  0.30194  1.0000
  Mg  Mg14      1.0  0.00000  0.50000  0.38116  1.0000
  Mg  Mg15      1.0  0.25000  0.33333  0.38116  1.0000
  Mg  Mg16      1.0  0.00092  0.33215  0.46026  1.0000
  Mg  Mg17      1.0  0.24952  0.49966  0.46049  1.0000
  Mg  Mg18      1.0  0.00106  0.49956  0.53959  1.0000
  Mg  Mg19      1.0  0.24749  0.32819  0.53987  1.0000
  Mg  Mg20      1.0  0.01119  0.32651  0.61886  1.0000
  Mg  Mg21      1.0  0.24674  0.50374  0.61917  1.0000
  Mg  Mg22      1.0  0.00157  0.49965  0.69705  1.0000
  Mg  Mg23      1.0  0.24592  0.32697  0.69755  1.0000
  Mg  Mg24      1.0  0.00000  0.66667  0.30194  1.0000
  Mg  Mg25      1.0  0.25000  0.83333  0.30194  1.0000
  Mg  Mg26      1.0  0.00000  0.83333  0.38116  1.0000
  Mg  Mg27      1.0  0.25000  0.66667  0.38116  1.0000
  Mg  Mg28      1.0  0.00008  0.66704  0.46041  1.0000
  Mg  Mg29      1.0  0.24965  0.83462  0.46069  1.0000
  Mg  Mg30      1.0  0.00069  0.83489  0.53994  1.0000
  Mg  Mg31      1.0  0.24948  0.66737  0.53926  1.0000
  Mg  Mg32      1.0  0.99907  0.66789  0.61903  1.0000
  Mg  Mg33      1.0  0.24870  0.83304  0.61923  1.0000
  Mg  Mg34      1.0  0.00107  0.83563  0.69696  1.0000
  Mg  Mg35      1.0  0.24912  0.66806  0.69794  1.0000
  Mg  Mg36      1.0  0.50000  0.00000  0.30194  1.0000
  Mg  Mg37      1.0  0.75000  0.16667  0.30194  1.0000
  Mg  Mg38      1.0  0.50000  0.16667  0.38116  1.0000
  Mg  Mg39      1.0  0.75000  0.00000  0.38116  1.0000
  Mg  Mg40      1.0  0.49897  0.00039  0.46061  1.0000
  Mg  Mg41      1.0  0.75042  0.16575  0.46086  1.0000
  Mg  Mg42      1.0  0.49250  0.16401  0.54026  1.0000
  Mg  Mg43      1.0  0.75001  0.00131  0.54011  1.0000
  Mg  Mg44      1.0  0.49129  0.99993  0.61902  1.0000
  Mg  Mg45      1.0  0.75215  0.16327  0.61933  1.0000
  Mg  Mg46      1.0  0.49125  0.16237  0.69754  1.0000
  Mg  Mg47      1.0  0.75029  0.00170  0.69678  1.0000
  Mg  Mg48      1.0  0.50000  0.33333  0.30194  1.0000
  Mg  Mg49      1.0  0.75000  0.50000  0.30194  1.0000
  Mg  Mg50      1.0  0.50000  0.50000  0.38116  1.0000
  Mg  Mg51      1.0  0.75000  0.33333  0.38116  1.0000
  Mg  Mg52      1.0  0.49947  0.33229  0.45862  1.0000
  Mg  Mg53      1.0  0.75060  0.49995  0.46045  1.0000
  Mg  Mg54      1.0  0.49942  0.50229  0.53846  1.0000
  Mg  Mg55      1.0  0.75434  0.33134  0.53868  1.0000
  Mg  Mg56      1.0  0.75431  0.50130  0.61906  1.0000
  Mg  Mg57      1.0  0.49938  0.50385  0.69814  1.0000
  Mg  Mg58      1.0  0.75679  0.33044  0.69782  1.0000
  Mg  Mg59      1.0  0.50000  0.66667  0.30194  1.0000
  Mg  Mg60      1.0  0.75000  0.83333  0.30194  1.0000
  Mg  Mg61      1.0  0.50000  0.83333  0.38116  1.0000
  Mg  Mg62      1.0  0.75000  0.66667  0.38116  1.0000
  Mg  Mg63      1.0  0.49988  0.66747  0.46022  1.0000
  Mg  Mg64      1.0  0.75018  0.83418  0.46058  1.0000
  Mg  Mg65      1.0  0.49894  0.83485  0.53972  1.0000
  Mg  Mg66      1.0  0.75045  0.66745  0.53958  1.0000
  Mg  Mg67      1.0  0.50063  0.67127  0.61900  1.0000
  Mg  Mg68      1.0  0.75032  0.83588  0.61913  1.0000
  Mg  Mg69      1.0  0.49858  0.83547  0.69711  1.0000
  Mg  Mg70      1.0  0.75092  0.66832  0.69730  1.0000
  O   O1        1.0  0.25000  0.00000  0.30194  1.0000
  O   O2        1.0  0.00000  0.16667  0.30194  1.0000
  O   O3        1.0  0.25000  0.16667  0.38116  1.0000
  O   O4        1.0  0.00000  0.00000  0.38116  1.0000
  O   O5        1.0  0.25031  0.99915  0.45999  1.0000
  O   O6        1.0  0.99844  0.16696  0.46002  1.0000
  O   O7        1.0  0.25095  0.16788  0.53468  1.0000
  O   O8        1.0  0.99966  0.00061  0.53985  1.0000
  O   O9        1.0  0.25038  0.99070  0.61917  1.0000
  O   O10       1.0  0.98657  0.16849  0.61919  1.0000
  O   O11       1.0  0.25201  0.16868  0.71062  1.0000
  O   O12       1.0  0.99915  0.00037  0.69796  1.0000
  O   O13       1.0  0.25000  0.33333  0.30194  1.0000
  O   O14       1.0  0.00000  0.50000  0.30194  1.0000
  O   O15       1.0  0.25000  0.50000  0.38116  1.0000
  O   O16       1.0  0.00000  0.33333  0.38116  1.0000
  O   O17       1.0  0.25111  0.33484  0.46013  1.0000
  O   O18       1.0  0.99944  0.49943  0.46098  1.0000
  O   O19       1.0  0.25233  0.49971  0.53974  1.0000
  O   O20       1.0  0.00066  0.33383  0.54057  1.0000
  O   O21       1.0  0.25823  0.34307  0.61942  1.0000
  O   O22       1.0  0.00011  0.49795  0.61860  1.0000
  O   O23       1.0  0.25328  0.49989  0.69985  1.0000
  O   O24       1.0  0.00080  0.33421  0.69707  1.0000
  O   O25       1.0  0.25000  0.66667  0.30194  1.0000
  O   O26       1.0  0.00000  0.83333  0.30194  1.0000
  O   O27       1.0  0.25000  0.83333  0.38116  1.0000
  O   O28       1.0  0.00000  0.66667  0.38116  1.0000
  O   O29       1.0  0.25011  0.66577  0.46036  1.0000
  O   O30       1.0  0.99961  0.83345  0.46048  1.0000
  O   O31       1.0  0.24991  0.83241  0.53941  1.0000
  O   O32       1.0  0.99969  0.66554  0.53989  1.0000
  O   O33       1.0  0.25099  0.66577  0.61910  1.0000
  O   O34       1.0  0.99777  0.83197  0.61869  1.0000
  O   O35       1.0  0.24986  0.83205  0.69993  1.0000
  O   O36       1.0  0.99910  0.66508  0.69890  1.0000
  O   O37       1.0  0.75000  0.00000  0.30194  1.0000
  O   O38       1.0  0.50000  0.16667  0.30194  1.0000
  O   O39       1.0  0.75000  0.16667  0.38116  1.0000
  O   O40       1.0  0.50000  0.00000  0.38116  1.0000
  O   O41       1.0  0.74925  0.99985  0.46089  1.0000
  O   O42       1.0  0.50142  0.16749  0.46006  1.0000
  O   O43       1.0  0.74778  0.16775  0.53944  1.0000
  O   O44       1.0  0.49916  0.00090  0.54030  1.0000
  O   O45       1.0  0.74592  0.00004  0.61867  1.0000
  O   O46       1.0  0.51143  0.17355  0.61947  1.0000
  O   O47       1.0  0.74646  0.16848  0.70045  1.0000
  O   O48       1.0  0.49994  0.00020  0.69752  1.0000
  O   O49       1.0  0.75000  0.33333  0.30194  1.0000
  O   O50       1.0  0.50000  0.50000  0.30194  1.0000
  O   O51       1.0  0.75000  0.50000  0.38116  1.0000
  O   O52       1.0  0.50000  0.33333  0.38116  1.0000
  O   O53       1.0  0.74896  0.33408  0.46065  1.0000
  O   O54       1.0  0.50069  0.49868  0.46093  1.0000
  O   O55       1.0  0.74805  0.49831  0.54041  1.0000
  O   O56       1.0  0.49986  0.33378  0.54191  1.0000
  O   O57       1.0  0.74170  0.33408  0.61877  1.0000
  O   O58       1.0  0.49995  0.49674  0.61878  1.0000
  O   O59       1.0  0.74797  0.49755  0.69903  1.0000
  O   O60       1.0  0.49988  0.33427  0.69615  1.0000
  O   O61       1.0  0.75000  0.66667  0.30194  1.0000
  O   O62       1.0  0.50000  0.83333  0.30194  1.0000
  O   O63       1.0  0.75000  0.83333  0.38116  1.0000
  O   O64       1.0  0.50000  0.66667  0.38116  1.0000
  O   O65       1.0  0.74983  0.66581  0.46044  1.0000
  O   O66       1.0  0.50029  0.83337  0.46047  1.0000
  O   O67       1.0  0.74982  0.83351  0.53976  1.0000
  O   O68       1.0  0.50022  0.66567  0.54018  1.0000
  O   O69       1.0  0.74876  0.66514  0.61898  1.0000
  O   O70       1.0  0.50115  0.83235  0.61864  1.0000
  O   O71       1.0  0.74987  0.83372  0.69950  1.0000
  O   O72       1.0  0.50112  0.66616  0.69845  1.0000
  Pt  Pt1       1.0  0.49842  0.33326  0.61925  1.0000
